38
Properties=species:S:1:pos:R:3 Geometry=T Step:=T 9=T pbc="F F F"
Ag      -3.99509943      -1.99638088      -0.00000249
Ag      -3.99510078      -0.00000295      -1.99638117
Ag      -3.99510159      -0.00000060       1.99638148
Ag      -3.99510294       1.99638177      -0.00000013
Ag      -1.99638083      -3.99510079      -0.00000249
Ag      -0.00000466      -3.99510206      -1.99638399
Ag      -0.00000231      -3.99510287       1.99638430
Ag      -1.99638368      -0.00000420      -3.99510210
Ag      -0.00000467      -1.99638395      -3.99510342
Ag      -2.01551711      -2.01551777      -2.01551842
Au      -2.02287696       0.00000319       0.00000199
Au       0.00000541      -2.02287960       0.00000199
Au       0.00000540       0.00000420      -2.02288224
Ag      -2.01550670      -2.01550735       2.01550228
Ag      -1.99638367      -0.00000263       3.99510086
Ag      -0.00000310      -1.99638394       3.99510218
Au       0.00000794       0.00000673       2.02288612
Ag      -0.00000234       1.99637922      -3.99509885
Ag      -2.01550996       2.01550305      -2.01550811
Ag      -1.99638650       3.99510215      -0.00000090
Au       0.00000796       2.02288879       0.00000448
Ag      -0.00000310       3.99509821      -1.99637888
Ag      -2.01550324       2.01550341       2.01550275
Ag      -0.00000075       1.99638161       3.99510077
Ag      -0.00000075       3.99510213       1.99638157
Ag       1.99637666      -3.99509886      -0.00000013
Ag       1.99637948      -0.00000184      -3.99510016
Ag       2.01550382      -2.01551071      -2.01551136
Au       2.02289154       0.00000563       0.00000448
Ag       3.99509820      -1.99638145      -0.00000090
Ag       3.99509951      -0.00000138      -1.99638171
Ag       2.01550418      -2.01550399       2.01550600
Ag       1.99638187      -0.00000025       3.99510207
Ag       3.99510343       0.00000097       1.99638440
Ag       2.01550745       2.01550677      -2.01550476
Ag       1.99638471       3.99510339       0.00000145
Ag       3.99510475       1.99638466       0.00000145
Ag       2.01551149       2.01551082       2.01551016
