38
Properties=species:S:1:pos:R:3 Geometry=T Step:=T 10=T pbc="F F F"
Ag      -2.00716676      -0.00000003      -0.00000038
Ag       0.00000024      -2.00716693      -0.00000038
Ag       0.00000024      -0.00000012      -2.00716711
Ag       0.00000114       0.00000078       2.00716714
Ag       0.00000114       2.00716732       0.00000052
Ag       2.00716752       0.00000086       0.00000052
Au      -3.94682463      -1.96561970      -0.00000044
Au      -3.94682537      -0.00000072      -1.96561939
Au      -3.94682458      -0.00000055       1.96561852
Au      -3.94682533       1.96561821      -0.00000027
Au      -1.96561868      -3.94682511      -0.00000044
Au      -0.00000058      -3.94682513      -1.96562033
Au      -0.00000041      -3.94682434       1.96561945
Au      -1.96561963      -0.00000031      -3.94682488
Au      -0.00000058      -1.96561931      -3.94682562
Au      -2.02073919      -2.02073934      -2.02073950
Au      -2.02073789      -2.02073804       2.02073783
Au      -1.96561870       0.00000037       3.94682406
Au       0.00000009      -1.96561838       3.94682480
Au      -0.00000042       1.96561878      -3.94682374
Au      -2.02073872       2.02073786      -2.02073807
Au      -1.96561964       3.94682384       0.00000023
Au       0.00000009       3.94682421      -1.96561770
Au      -2.02073816       2.02073809       2.02073793
Au       0.00000026       1.96561940       3.94682418
Au       0.00000026       3.94682467       1.96561838
Au       1.96561753      -3.94682472      -0.00000027
Au       1.96561847      -0.00000014      -3.94682448
Au       2.02073790      -2.02073874      -2.02073889
Au       3.94682325      -1.96561896       0.00000023
Au       3.94682400      -0.00000004      -1.96561864
Au       2.02073813      -2.02073818       2.02073876
Au       1.96561909       0.00000054       3.94682492
Au       3.94682445       0.00000012       1.96561933
Au       2.02073895       2.02073879      -2.02073821
Au       1.96562004       3.94682469       0.00000040
Au       3.94682519       1.96561901       0.00000040
Au       2.02073992       2.02073976       2.02073960
