55
Properties=species:S:1:pos:R:3 Geometry=T Step:=T 6=T pbc="F F F"
Au       0.00000000       0.00000000       0.00000000
Au       0.00000003       1.42118658       2.29966110
Au       0.00000003       1.42118672      -2.29966124
Au       0.00000003      -1.42118668       2.29966118
Au       0.00000003      -1.42118681      -2.29966131
Au       1.42118658       2.29966110       0.00000003
Au      -1.42118668       2.29966118       0.00000003
Au       1.42118672      -2.29966124       0.00000003
Au      -1.42118681      -2.29966131       0.00000003
Au       2.29966110       0.00000003       1.42118658
Au       2.29966118       0.00000003      -1.42118668
Au      -2.29966124       0.00000003       1.42118672
Au      -2.29966131       0.00000003      -1.42118681
Au      -4.58474231       0.00000015      -2.83354193
Au       0.00000015       2.83354149       4.58474200
Au       0.00000015       2.83354183      -4.58474215
Au       0.00000015      -2.83354159       4.58474217
Au       0.00000015      -2.83354193      -4.58474231
Au       2.83354149       4.58474200       0.00000015
Au      -2.83354159       4.58474217       0.00000015
Au       2.83354183      -4.58474215       0.00000015
Au      -2.83354193      -4.58474231       0.00000015
Au       4.58474200       0.00000015       2.83354149
Au       4.58474217       0.00000015      -2.83354159
Au      -4.58474215       0.00000015       2.83354183
Au      -0.00000001       4.68676501       0.00000016
Au      -0.00000001      -4.68676522       0.00000016
Au      -4.68676522       0.00000016      -0.00000001
Au       4.68676501       0.00000016      -0.00000001
Au       0.00000016      -0.00000001      -4.68676522
Au       0.00000016      -0.00000001       4.68676501
Au       1.44822101      -3.79150916       2.34326576
Au      -1.44822095      -3.79150921       2.34326583
Au       1.44822103      -3.79150937      -2.34326561
Au      -1.44822098      -3.79150941      -2.34326568
Au       3.79150929      -2.34326559      -1.44822084
Au       3.79150924      -2.34326552       1.44822089
Au      -3.79150941      -2.34326568      -1.44822098
Au      -3.79150937      -2.34326561       1.44822103
Au       1.44822089       3.79150924      -2.34326552
Au       1.44822087       3.79150903       2.34326566
Au      -1.44822084       3.79150929      -2.34326559
Au      -1.44822082       3.79150908       2.34326573
Au      -2.34326561       1.44822103      -3.79150937
Au       2.34326576       1.44822101      -3.79150916
Au      -2.34326568      -1.44822098      -3.79150941
Au       2.34326583      -1.44822095      -3.79150921
Au      -3.79150916       2.34326576       1.44822101
Au      -3.79150921       2.34326583      -1.44822095
Au      -2.34326559      -1.44822084       3.79150929
Au       2.34326573      -1.44822082       3.79150908
Au       2.34326566       1.44822087       3.79150903
Au      -2.34326552       1.44822089       3.79150924
Au       3.79150908       2.34326573      -1.44822082
Au       3.79150903       2.34326566       1.44822087
